<?xml version="1.0" encoding="UTF-8"?>

<!-- generated on 2022-07-11 11:28:49 by Eclipse SUMO netconvert Version 1.13.0
<configuration xmlns:xsi="http://www.w3.org/2001/XMLSchema-instance" xsi:noNamespaceSchemaLocation="http://sumo.dlr.de/xsd/netconvertConfiguration.xsd">

    <input>
        <type-files value="C:\Program%20Files%20(x86)\Eclipse\Sumo\data\typemap\osmNetconvert.typ.xml"/>
        <osm-files value="osm_bbox.osm.xml.gz"/>
    </input>

    <output>
        <output-file value="osm.net.xml"/>
        <output.street-names value="true"/>
        <output.original-names value="true"/>
    </output>

    <projection>
        <proj.utm value="true"/>
    </projection>

    <processing>
        <geometry.remove value="true"/>
        <roundabouts.guess value="true"/>
    </processing>

    <tls_building>
        <tls.discard-simple value="true"/>
        <tls.join value="true"/>
        <tls.guess-signals value="true"/>
        <tls.default-type value="actuated"/>
    </tls_building>

    <ramp_guessing>
        <ramps.guess value="true"/>
    </ramp_guessing>

    <edge_removal>
        <keep-edges.by-vclass value="passenger"/>
    </edge_removal>

    <junctions>
        <junctions.join value="true"/>
        <junctions.corner-detail value="5"/>
    </junctions>

    <report>
        <verbose value="true"/>
        <aggregate-warnings value="5"/>
    </report>

</configuration>
-->

<net version="1.9" junctionCornerDetail="5" limitTurnSpeed="5.50" xmlns:xsi="http://www.w3.org/2001/XMLSchema-instance" xsi:noNamespaceSchemaLocation="http://sumo.dlr.de/xsd/net_file.xsd">

    <location netOffset="-488460.30,-4780923.86" convBoundary="0.00,0.00,7342.91,5910.87" origBoundary="-3.142029,43.181057,-3.051657,43.234267" projParameter="+proj=utm +zone=30 +ellps=WGS84 +datum=WGS84 +units=m +no_defs"/>

    <type id="highway.bridleway" priority="1" numLanes="1" speed="2.78" allow="pedestrian" oneway="1" width="2.00"/>
    <type id="highway.bus_guideway" priority="1" numLanes="1" speed="27.78" allow="bus" oneway="1"/>
    <type id="highway.cycleway" priority="1" numLanes="1" speed="8.33" allow="bicycle" oneway="0" width="1.00"/>
    <type id="highway.footway" priority="1" numLanes="1" speed="2.78" allow="pedestrian" oneway="1" width="2.00"/>
    <type id="highway.ford" priority="1" numLanes="1" speed="2.78" allow="army" oneway="0"/>
    <type id="highway.living_street" priority="2" numLanes="1" speed="2.78" disallow="tram rail_urban rail rail_electric rail_fast ship" oneway="0"/>
    <type id="highway.motorway" priority="14" numLanes="2" speed="39.44" allow="private emergency authority army vip passenger hov taxi bus coach delivery truck trailer motorcycle evehicle custom1 custom2" oneway="1"/>
    <type id="highway.motorway_link" priority="9" numLanes="1" speed="22.22" allow="private emergency authority army vip passenger hov taxi bus coach delivery truck trailer motorcycle evehicle custom1 custom2" oneway="1"/>
    <type id="highway.path" priority="1" numLanes="1" speed="2.78" allow="pedestrian bicycle" oneway="0" width="2.00"/>
    <type id="highway.pedestrian" priority="1" numLanes="1" speed="2.78" allow="pedestrian" oneway="1" width="2.00"/>
    <type id="highway.primary" priority="12" numLanes="2" speed="27.78" disallow="tram rail_urban rail rail_electric rail_fast ship" oneway="0"/>
    <type id="highway.primary_link" priority="7" numLanes="1" speed="22.22" disallow="tram rail_urban rail rail_electric rail_fast ship" oneway="0"/>
    <type id="highway.raceway" priority="15" numLanes="2" speed="83.33" allow="vip" oneway="0"/>
    <type id="highway.residential" priority="3" numLanes="1" speed="13.89" disallow="tram rail_urban rail rail_electric rail_fast ship" oneway="0"/>
    <type id="highway.secondary" priority="11" numLanes="1" speed="27.78" disallow="tram rail_urban rail rail_electric rail_fast ship" oneway="0"/>
    <type id="highway.secondary_link" priority="6" numLanes="1" speed="22.22" disallow="tram rail_urban rail rail_electric rail_fast ship" oneway="0"/>
    <type id="highway.service" priority="1" numLanes="1" speed="5.56" allow="pedestrian delivery bicycle" oneway="0"/>
    <type id="highway.stairs" priority="1" numLanes="1" speed="1.39" allow="pedestrian" oneway="1" width="2.00"/>
    <type id="highway.step" priority="1" numLanes="1" speed="1.39" allow="pedestrian" oneway="1" width="2.00"/>
    <type id="highway.steps" priority="1" numLanes="1" speed="1.39" allow="pedestrian" oneway="1" width="2.00"/>
    <type id="highway.tertiary" priority="10" numLanes="1" speed="22.22" disallow="tram rail_urban rail rail_electric rail_fast ship" oneway="0"/>
    <type id="highway.tertiary_link" priority="5" numLanes="1" speed="22.22" disallow="tram rail_urban rail rail_electric rail_fast ship" oneway="0"/>
    <type id="highway.track" priority="1" numLanes="1" speed="5.56" allow="pedestrian motorcycle moped bicycle" oneway="0"/>
    <type id="highway.trunk" priority="13" numLanes="2" speed="27.78" disallow="pedestrian bicycle tram rail_urban rail rail_electric rail_fast ship" oneway="0"/>
    <type id="highway.trunk_link" priority="8" numLanes="1" speed="22.22" disallow="pedestrian bicycle tram rail_urban rail rail_electric rail_fast ship" oneway="0"/>
    <type id="highway.unclassified" priority="4" numLanes="1" speed="13.89" disallow="tram rail_urban rail rail_electric rail_fast ship" oneway="0"/>
    <type id="highway.unsurfaced" priority="1" numLanes="1" speed="8.33" disallow="tram rail_urban rail rail_electric rail_fast ship" oneway="0"/>
    <type id="railway.highspeed" priority="21" numLanes="1" speed="69.44" allow="rail_fast" oneway="1"/>
    <type id="railway.light_rail" priority="19" numLanes="1" speed="27.78" allow="rail_urban" oneway="1"/>
    <type id="railway.preserved" priority="16" numLanes="1" speed="27.78" allow="rail" oneway="1"/>
    <type id="railway.rail" priority="20" numLanes="1" speed="44.44" allow="rail" oneway="1"/>
    <type id="railway.subway" priority="18" numLanes="1" speed="27.78" allow="rail_urban" oneway="1"/>
    <type id="railway.tram" priority="17" numLanes="1" speed="13.89" allow="tram" oneway="1"/>

    <edge id=":1811331421_0" function="internal">
        <lane id=":1811331421_0_0" index="0" disallow="tram rail_urban rail rail_electric rail_fast ship" speed="6.47" length="4.27" shape="4935.72,2353.59 4935.82,2352.50 4936.14,2351.51 4936.69,2350.63 4937.45,2349.84"/>
    </edge>
    <edge id=":1811331421_1" function="internal">
        <lane id=":1811331421_1_0" index="0" disallow="tram rail_urban rail rail_electric rail_fast ship" speed="4.11" length="1.42" shape="4939.50,2352.31 4939.24,2352.57 4939.06,2352.86 4938.95,2353.19 4938.92,2353.56"/>
    </edge>
    <edge id=":1811331526_0" function="internal">
        <lane id=":1811331526_0_0" index="0" disallow="tram rail_urban rail rail_electric rail_fast ship" speed="6.20" length="5.74" shape="3959.37,2562.02 3960.25,2563.24 3960.69,2564.53 3960.68,2565.89 3960.22,2567.32"/>
    </edge>
    <edge id=":1811331526_1" function="internal">
        <lane id=":1811331526_1_0" index="0" disallow="tram rail_urban rail rail_electric rail_fast ship" speed="3.97" length="1.91" shape="3957.32,2565.98 3957.47,2565.50 3957.47,2565.04 3957.33,2564.61 3957.03,2564.21"/>
    </edge>
    <edge id=":1811331542_0" function="internal">
        <lane id=":1811331542_0_0" index="0" disallow="tram rail_urban rail rail_electric rail_fast ship" speed="3.65" length="4.67" shape="3778.72,2594.46 3777.45,2593.78 3776.97,2593.02 3777.29,2592.19 3778.41,2591.28"/>
    </edge>
    <edge id=":1811331603_0" function="internal">
        <lane id=":1811331603_0_0" index="0" disallow="tram rail_urban rail rail_electric rail_fast ship" speed="11.75" length="10.74" shape="4795.17,2674.40 4793.86,2671.62 4792.46,2669.86 4790.59,2668.52 4787.84,2667.05"/>
    </edge>
    <edge id=":1811331603_1" function="internal">
        <lane id=":1811331603_1_0" index="0" disallow="tram rail_urban rail rail_electric rail_fast ship" speed="10.74" length="12.82" shape="4795.17,2674.40 4794.43,2671.54 4794.44,2668.54 4795.21,2665.39 4796.73,2662.10"/>
    </edge>
    <edge id=":1811331603_2" function="internal">
        <lane id=":1811331603_2_0" index="0" disallow="tram rail_urban rail rail_electric rail_fast ship" speed="3.65" length="1.44" shape="4795.17,2674.40 4795.46,2672.99"/>
    </edge>
    <edge id=":1811331603_9" function="internal">
        <lane id=":1811331603_9_0" index="0" disallow="tram rail_urban rail rail_electric rail_fast ship" speed="3.65" length="3.23" shape="4795.46,2672.99 4796.05,2672.32 4796.95,2672.39 4798.14,2673.20"/>
    </edge>
    <edge id=":1811331603_3" function="internal">
        <lane id=":1811331603_3_0" index="0" disallow="tram rail_urban rail rail_electric rail_fast ship" speed="9.49" length="9.89" shape="4799.48,2663.73 4798.27,2666.32 4797.64,2668.77 4797.60,2671.06 4798.14,2673.20"/>
    </edge>
    <edge id=":1811331603_4" function="internal">
        <lane id=":1811331603_4_0" index="0" disallow="tram rail_urban rail rail_electric rail_fast ship" speed="7.96" length="3.17" shape="4799.48,2663.73 4797.54,2666.24"/>
    </edge>
    <edge id=":1811331603_5" function="internal">
        <lane id=":1811331603_5_0" index="0" disallow="tram rail_urban rail rail_electric rail_fast ship" speed="3.65" length="1.34" shape="4799.48,2663.73 4798.28,2664.31"/>
    </edge>
    <edge id=":1811331603_10" function="internal">
        <lane id=":1811331603_10_0" index="0" disallow="tram rail_urban rail rail_electric rail_fast ship" speed="7.96" length="10.54" shape="4797.54,2666.24 4797.22,2666.66 4794.52,2668.20 4791.39,2668.32 4787.84,2667.05"/>
    </edge>
    <edge id=":1811331603_11" function="internal">
        <lane id=":1811331603_11_0" index="0" disallow="tram rail_urban rail rail_electric rail_fast ship" speed="3.65" length="3.34" shape="4798.28,2664.31 4798.18,2664.35 4797.29,2664.29 4796.81,2663.54 4796.73,2662.10"/>
    </edge>
    <edge id=":1811331603_6" function="internal">
        <lane id=":1811331603_6_0" index="0" disallow="tram rail_urban rail rail_electric rail_fast ship" speed="6.47" length="8.72" shape="4789.33,2664.21 4791.59,2665.02 4793.57,2664.94 4795.29,2663.97 4796.73,2662.10"/>
    </edge>
    <edge id=":1811331603_7" function="internal">
        <lane id=":1811331603_7_0" index="0" disallow="tram rail_urban rail rail_electric rail_fast ship" speed="12.84" length="12.90" shape="4789.33,2664.21 4792.31,2665.95 4794.69,2667.84 4796.59,2670.17 4798.14,2673.20"/>
    </edge>
    <edge id=":1811331603_8" function="internal">
        <lane id=":1811331603_8_0" index="0" disallow="tram rail_urban rail rail_electric rail_fast ship" speed="3.65" length="4.67" shape="4789.33,2664.21 4790.02,2665.48 4790.00,2666.37 4789.28,2666.90 4787.84,2667.05"/>
    </edge>
    <edge id=":1811331638_0" function="internal">
        <lane id=":1811331638_0_0" index="0" disallow="tram rail_urban rail rail_electric rail_fast ship" speed="22.22" length="14.35" shape="4793.14,2812.96 4778.79,2813.13"/>
    </edge>
    <edge id=":1811331638_1" function="internal">
        <lane id=":1811331638_1_0" index="0" disallow="tram rail_urban rail rail_electric rail_fast ship" speed="7.65" length="4.43" shape="4793.14,2812.96 4788.86,2812.43 4788.76,2812.37"/>
    </edge>
    <edge id=":1811331638_2" function="internal">
        <lane id=":1811331638_2_0" index="0" disallow="tram rail_urban rail rail_electric rail_fast ship" speed="3.65" length="1.44" shape="4793.14,2812.96 4791.93,2812.17"/>
    </edge>
    <edge id=":1811331638_9" function="internal">
        <lane id=":1811331638_9_0" index="0" disallow="tram rail_urban rail rail_electric rail_fast ship" speed="7.65" length="10.18" shape="4788.76,2812.37 4786.02,2810.78 4784.62,2808.00 4784.66,2804.10"/>
    </edge>
    <edge id=":1811331638_10" function="internal">
        <lane id=":1811331638_10_0" index="0" disallow="tram rail_urban rail rail_electric rail_fast ship" speed="3.65" length="3.23" shape="4791.93,2812.17 4791.53,2811.37 4791.92,2810.57 4793.12,2809.76"/>
    </edge>
    <edge id=":1811331638_3" function="internal">
        <lane id=":1811331638_3_0" index="0" disallow="tram rail_urban rail rail_electric rail_fast ship" speed="6.18" length="9.11" shape="4787.89,2804.18 4787.86,2806.64 4788.72,2808.39 4790.47,2809.43 4793.12,2809.76"/>
    </edge>
    <edge id=":1811331638_4" function="internal">
        <lane id=":1811331638_4_0" index="0" disallow="tram rail_urban rail rail_electric rail_fast ship" speed="8.55" length="14.02" shape="4787.89,2804.18 4786.76,2808.05 4784.86,2810.83 4782.21,2812.52 4778.79,2813.13"/>
    </edge>
    <edge id=":1811331638_5" function="internal">
        <lane id=":1811331638_5_0" index="0" disallow="tram rail_urban rail rail_electric rail_fast ship" speed="3.66" length="4.72" shape="4787.89,2804.18 4787.05,2805.37 4786.24,2805.76 4785.44,2805.33 4784.66,2804.10"/>
    </edge>
    <edge id=":1811331638_6" function="internal">
        <lane id=":1811331638_6_0" index="0" disallow="tram rail_urban rail rail_electric rail_fast ship" speed="7.01" length="9.13" shape="4778.73,2809.93 4780.96,2809.54 4782.69,2808.43 4783.92,2806.62 4784.66,2804.10"/>
    </edge>
    <edge id=":1811331638_7" function="internal">
        <lane id=":1811331638_7_0" index="0" disallow="tram rail_urban rail rail_electric rail_fast ship" speed="22.22" length="14.39" shape="4778.73,2809.93 4793.12,2809.76"/>
    </edge>
    <edge id=":1811331638_8" function="internal">
        <lane id=":1811331638_8_0" index="0" disallow="tram rail_urban rail rail_electric rail_fast ship" speed="3.65" length="1.44" shape="4778.73,2809.93 4779.94,2810.71"/>
    </edge>
    <edge id=":1811331638_11" function="internal">
        <lane id=":1811331638_11_0" index="0" disallow="tram rail_urban rail rail_electric rail_fast ship" speed="3.65" length="3.23" shape="4779.94,2810.71 4780.36,2811.51 4779.97,2812.31 4778.79,2813.13"/>
    </edge>
    <edge id=":1811686833_0" function="internal">
        <lane id=":1811686833_0_0" index="0" disallow="tram rail_urban rail rail_electric rail_fast ship" speed="3.65" length="4.67" shape="4129.56,2872.98 4130.85,2872.34 4131.74,2872.40 4132.23,2873.15 4132.32,2874.58"/>
    </edge>
    <edge id=":1811686848_0" function="internal">
        <lane id=":1811686848_0_0" index="0" disallow="tram rail_urban rail rail_electric rail_fast ship" speed="6.04" length="9.10" shape="4048.28,3090.05 4047.20,3087.70 4045.68,3086.48 4043.72,3086.38 4041.32,3087.40"/>
    </edge>
    <edge id=":1811686848_1" function="internal">
        <lane id=":1811686848_1_0" index="0" disallow="tram rail_urban rail rail_electric rail_fast ship" speed="13.89" length="15.09" shape="4048.28,3090.05 4047.09,3086.47 4045.65,3082.98 4043.95,3079.60 4041.98,3076.40"/>
    </edge>
    <edge id=":1811686848_2" function="internal">
        <lane id=":1811686848_2_0" index="0" disallow="tram rail_urban rail rail_electric rail_fast ship" speed="10.10" length="15.73" shape="4048.28,3090.05 4047.58,3085.92 4048.01,3082.18 4049.58,3078.80 4052.30,3075.79"/>
    </edge>
    <edge id=":1811686848_3" function="internal">
        <lane id=":1811686848_3_0" index="0" disallow="tram rail_urban rail rail_electric rail_fast ship" speed="3.65" length="4.67" shape="4048.28,3090.05 4048.71,3088.67 4049.36,3088.06 4050.24,3088.21 4051.35,3089.14"/>
    </edge>
    <edge id=":1811686848_4" function="internal">
        <lane id=":1811686848_4_0" index="0" disallow="tram rail_urban rail rail_electric rail_fast ship" speed="8.84" length="11.89" shape="4054.26,3078.33 4052.25,3080.57 4051.09,3083.12 4050.80,3085.98 4051.35,3089.14"/>
    </edge>
    <edge id=":1811686848_5" function="internal">
        <lane id=":1811686848_5_0" index="0" disallow="tram rail_urban rail rail_electric rail_fast ship" speed="22.22" length="15.82" shape="4054.26,3078.33 4051.24,3080.76 4047.97,3083.12 4044.61,3085.35 4041.32,3087.40"/>
    </edge>
    <edge id=":1811686848_6" function="internal">
        <lane id=":1811686848_6_0" index="0" disallow="tram rail_urban rail rail_electric rail_fast ship" speed="7.79" length="4.31" shape="4054.26,3078.33 4050.89,3080.44 4050.56,3080.48"/>
    </edge>
    <edge id=":1811686848_7" function="internal">
        <lane id=":1811686848_7_0" index="0" disallow="tram rail_urban rail rail_electric rail_fast ship" speed="3.65" length="1.44" shape="4054.26,3078.33 4052.82,3078.43"/>
    </edge>
    <edge id=":1811686848_16" function="internal">
        <lane id=":1811686848_16_0" index="0" disallow="tram rail_urban rail rail_electric rail_fast ship" speed="7.79" length="10.26" shape="4050.56,3080.48 4047.72,3080.82 4044.75,3079.48 4041.98,3076.40"/>
    </edge>
    <edge id=":1811686848_17" function="internal">
        <lane id=":1811686848_17_0" index="0" disallow="tram rail_urban rail rail_electric rail_fast ship" speed="3.65" length="3.24" shape="4052.82,3078.43 4052.01,3078.04 4051.84,3077.16 4052.30,3075.79"/>
    </edge>
    <edge id=":1811686848_8" function="internal">
        <lane id=":1811686848_8_0" index="0" disallow="tram rail_urban rail rail_electric rail_fast ship" speed="6.29" length="9.10" shape="4044.63,3074.60 4046.36,3076.52 4048.21,3077.36 4050.19,3077.11 4052.30,3075.79"/>
    </edge>
    <edge id=":1811686848_9" function="internal">
        <lane id=":1811686848_9_0" index="0" disallow="tram rail_urban rail rail_electric rail_fast ship" speed="13.89" length="16.06" shape="4044.63,3074.60 4046.66,3077.95 4048.51,3081.62 4050.10,3085.42 4051.35,3089.14"/>
    </edge>
    <edge id=":1811686848_10" function="internal">
        <lane id=":1811686848_10_0" index="0" disallow="tram rail_urban rail rail_electric rail_fast ship" speed="8.12" length="15.26" shape="4044.63,3074.60 4046.37,3078.28 4046.40,3081.64 4044.71,3084.68 4041.32,3087.40"/>
    </edge>
    <edge id=":1811686848_11" function="internal">
        <lane id=":1811686848_11_0" index="0" disallow="tram rail_urban rail rail_electric rail_fast ship" speed="3.65" length="4.67" shape="4044.63,3074.60 4044.64,3076.05 4044.20,3076.83 4043.31,3076.94 4041.98,3076.40"/>
    </edge>
    <edge id=":1811686848_12" function="internal">
        <lane id=":1811686848_12_0" index="0" disallow="tram rail_urban rail rail_electric rail_fast ship" speed="6.69" length="10.00" shape="4039.56,3084.72 4041.86,3082.91 4043.03,3080.92 4043.07,3078.75 4041.98,3076.40"/>
    </edge>
    <edge id=":1811686848_13" function="internal">
        <lane id=":1811686848_13_0" index="0" disallow="tram rail_urban rail rail_electric rail_fast ship" speed="22.22" length="15.57" shape="4039.56,3084.72 4042.82,3082.70 4046.11,3080.51 4049.31,3078.20 4052.30,3075.79"/>
    </edge>
    <edge id=":1811686848_14" function="internal">
        <lane id=":1811686848_14_0" index="0" disallow="tram rail_urban rail rail_electric rail_fast ship" speed="7.65" length="4.32" shape="4039.56,3084.72 4043.54,3083.03"/>
    </edge>
    <edge id=":1811686848_15" function="internal">
        <lane id=":1811686848_15_0" index="0" disallow="tram rail_urban rail rail_electric rail_fast ship" speed="3.65" length="1.44" shape="4039.56,3084.72 4041.00,3084.73"/>
    </edge>
    <edge id=":1811686848_18" function="internal">
        <lane id=":1811686848_18_0" index="0" disallow="tram rail_urban rail rail_electric rail_fast ship" speed="7.65" length="11.05" shape="4043.54,3083.03 4043.63,3082.99 4046.96,3083.15 4049.53,3085.20 4051.35,3089.14"/>
    </edge>
    <edge id=":1811686848_19" function="internal">
        <lane id=":1811686848_19_0" index="0" disallow="tram rail_urban rail rail_electric rail_fast ship" speed="3.65" length="3.23" shape="4041.00,3084.73 4041.78,3085.19 4041.88,3086.07 4041.32,3087.40"/>
    </edge>
    <edge id=":1811686852_0" function="internal">
        <lane id=":1811686852_0_0" index="0" disallow="tram rail_urban rail rail_electric rail_fast ship" speed="3.65" length="4.67" shape="4057.23,3113.71 4057.26,3115.15 4056.84,3115.94 4055.95,3116.07 4054.61,3115.54"/>
    </edge>
    <edge id=":1955840472_0" function="internal">
        <lane id=":1955840472_0_0" index="0" disallow="tram rail_urban rail rail_electric rail_fast ship" speed="6.11" length="0.96" shape="3344.25,3458.23 3343.36,3457.86"/>
    </edge>
    <edge id=":1955840472_1" function="internal">
        <lane id=":1955840472_1_0" index="0" disallow="tram rail_urban rail rail_electric rail_fast ship" speed="3.65" length="0.87" shape="3344.25,3458.23 3343.58,3457.67"/>
    </edge>
    <edge id=":1955840472_4" function="internal">
        <lane id=":1955840472_4_0" index="0" disallow="tram rail_urban rail rail_electric rail_fast ship" speed="6.11" length="6.81" shape="3343.36,3457.86 3342.93,3457.69 3342.08,3456.41 3341.70,3454.39 3341.78,3451.63"/>
    </edge>
    <edge id=":1955840472_5" function="internal">
        <lane id=":1955840472_5_0" index="0" disallow="tram rail_urban rail rail_electric rail_fast ship" speed="3.65" length="3.80" shape="3343.58,3457.67 3343.15,3457.30 3342.84,3456.46 3343.32,3455.71 3344.60,3455.05"/>
    </edge>
    <edge id=":1955840472_2" function="internal">
        <lane id=":1955840472_2_0" index="0" disallow="tram rail_urban rail rail_electric rail_fast ship" speed="13.89" length="9.40" shape="3340.84,3460.99 3341.78,3451.63"/>
    </edge>
    <edge id=":1955840472_3" function="internal">
        <lane id=":1955840472_3_0" index="0" disallow="tram rail_urban rail rail_electric rail_fast ship" speed="6.07" length="7.79" shape="3340.84,3460.99 3341.31,3458.26 3342.10,3456.36 3343.19,3455.29 3344.60,3455.05"/>
    </edge>
    <edge id=":1955840473_0" function="internal">
        <lane id=":1955840473_0_0" index="0" disallow="tram rail_urban rail rail_electric rail_fast ship" speed="13.89" length="9.40" shape="3388.01,3456.77 3386.91,3466.10"/>
    </edge>
    <edge id=":1955840473_1" function="internal">
        <lane id=":1955840473_1_0" index="0" disallow="tram rail_urban rail rail_electric rail_fast ship" speed="6.10" length="7.77" shape="3388.01,3456.77 3387.50,3459.48 3386.69,3461.37 3385.58,3462.43 3384.19,3462.67"/>
    </edge>
    <edge id=":1955840473_2" function="internal">
        <lane id=":1955840473_2_0" index="0" disallow="tram rail_urban rail rail_electric rail_fast ship" speed="6.07" length="0.96" shape="3384.54,3459.49 3385.43,3459.86"/>
    </edge>
    <edge id=":1955840473_3" function="internal">
        <lane id=":1955840473_3_0" index="0" disallow="tram rail_urban rail rail_electric rail_fast ship" speed="3.65" length="0.89" shape="3384.54,3459.49 3385.22,3460.06"/>
    </edge>
    <edge id=":1955840473_4" function="internal">
        <lane id=":1955840473_4_0" index="0" disallow="tram rail_urban rail rail_electric rail_fast ship" speed="6.07" length="6.81" shape="3385.43,3459.86 3385.85,3460.03 3386.69,3461.31 3387.04,3463.34 3386.91,3466.10"/>
    </edge>
    <edge id=":1955840473_5" function="internal">
        <lane id=":1955840473_5_0" index="0" disallow="tram rail_urban rail rail_electric rail_fast ship" speed="3.65" length="3.78" shape="3385.22,3460.06 3385.64,3460.42 3385.95,3461.26 3385.47,3462.01 3384.19,3462.67"/>
    </edge>
    <edge id=":1955840480_0" function="internal">
        <lane id=":1955840480_0_0" index="0" disallow="tram rail_urban rail rail_electric rail_fast ship" speed="6.51" length="8.99" shape="3181.89,3502.02 3182.24,3504.45 3183.28,3506.20 3185.02,3507.25 3187.46,3507.61"/>
    </edge>
    <edge id=":1955840480_1" function="internal">
        <lane id=":1955840480_1_0" index="0" disallow="tram rail_urban rail rail_electric rail_fast ship" speed="13.89" length="11.10" shape="3181.89,3502.02 3181.73,3513.12"/>
    </edge>
    <edge id=":1955840480_2" function="internal">
        <lane id=":1955840480_2_0" index="0" disallow="tram rail_urban rail rail_electric rail_fast ship" speed="3.65" length="1.44" shape="3181.89,3502.02 3181.09,3503.22"/>
    </edge>
    <edge id=":1955840480_6" function="internal">
        <lane id=":1955840480_6_0" index="0" disallow="tram rail_urban rail rail_electric rail_fast ship" speed="3.65" length="3.23" shape="3181.09,3503.22 3180.29,3503.62 3179.49,3503.22 3178.69,3502.02"/>
    </edge>
    <edge id=":1955840480_3" function="internal">
        <lane id=":1955840480_3_0" index="0" disallow="tram rail_urban rail rail_electric rail_fast ship" speed="13.89" length="11.00" shape="3178.53,3513.02 3178.69,3502.02"/>
    </edge>
    <edge id=":1955840480_4" function="internal">
        <lane id=":1955840480_4_0" index="0" disallow="tram rail_urban rail rail_electric rail_fast ship" speed="7.37" length="2.46" shape="3178.53,3513.02 3179.15,3510.64"/>
    </edge>
    <edge id=":1955840480_5" function="internal">
        <lane id=":1955840480_5_0" index="0" disallow="tram rail_urban rail rail_electric rail_fast ship" speed="3.65" length="1.44" shape="3178.53,3513.02 3179.37,3511.85"/>
    </edge>
    <edge id=":1955840480_7" function="internal">
        <lane id=":1955840480_7_0" index="0" disallow="tram rail_urban rail rail_electric rail_fast ship" speed="7.37" length="9.20" shape="3179.15,3510.64 3180.84,3508.94 3183.61,3507.93 3187.46,3507.61"/>
    </edge>
    <edge id=":1955840480_8" function="internal">
        <lane id=":1955840480_8_0" index="0" disallow="tram rail_urban rail rail_electric rail_fast ship" speed="3.65" length="3.23" shape="3179.37,3511.85 3180.18,3511.47 3180.97,3511.89 3181.73,3513.12"/>
    </edge>
    <edge id=":1955840481_0" function="internal">
        <lane id=":1955840481_0_0" index="0" disallow="tram rail_urban rail rail_electric rail_fast ship" speed="13.89" length="11.14" shape="3300.45,3513.78 3300.17,3502.64"/>
    </edge>
    <edge id=":1955840481_1" function="internal">
        <lane id=":1955840481_1_0" index="0" disallow="tram rail_urban rail rail_electric rail_fast ship" speed="3.65" length="1.44" shape="3300.45,3513.78 3301.19,3512.55"/>
    </edge>
    <edge id=":1955840481_6" function="internal">
        <lane id=":1955840481_6_0" index="0" disallow="tram rail_urban rail rail_electric rail_fast ship" speed="3.65" length="3.23" shape="3301.19,3512.55 3301.98,3512.11 3302.79,3512.48 3303.64,3513.64"/>
    </edge>
    <edge id=":1955840481_2" function="internal">
        <lane id=":1955840481_2_0" index="0" disallow="tram rail_urban rail rail_electric rail_fast ship" speed="13.89" length="11.03" shape="3303.37,3502.61 3303.64,3513.64"/>
    </edge>
    <edge id=":1955840481_3" function="internal">
        <lane id=":1955840481_3_0" index="0" disallow="tram rail_urban rail rail_electric rail_fast ship" speed="3.65" length="1.44" shape="3303.37,3502.61 3302.58,3503.82"/>
    </edge>
    <edge id=":1955840481_7" function="internal">
        <lane id=":1955840481_7_0" index="0" disallow="tram rail_urban rail rail_electric rail_fast ship" speed="3.65" length="3.23" shape="3302.58,3503.82 3301.78,3504.23 3300.98,3503.83 3300.17,3502.64"/>
    </edge>
    <edge id=":1955840481_4" function="internal">
        <lane id=":1955840481_4_0" index="0" disallow="tram rail_urban rail rail_electric rail_fast ship" speed="6.48" length="9.03" shape="3294.59,3508.23 3297.04,3507.89 3298.79,3506.85 3299.83,3505.10 3300.17,3502.64"/>
    </edge>
    <edge id=":1955840481_5" function="internal">
        <lane id=":1955840481_5_0" index="0" disallow="tram rail_urban rail rail_electric rail_fast ship" speed="7.45" length="11.72" shape="3294.59,3508.23 3298.46,3508.58 3301.26,3509.61 3302.99,3511.29 3303.64,3513.64"/>
    </edge>
    <edge id=":1955840482_0" function="internal">
        <lane id=":1955840482_0_0" index="0" disallow="tram rail_urban rail rail_electric rail_fast ship" speed="22.22" length="11.26" shape="3386.25,3525.02 3375.00,3525.22"/>
    </edge>
    <edge id=":1955840482_1" function="internal">
        <lane id=":1955840482_1_0" index="0" disallow="tram rail_urban rail rail_electric rail_fast ship" speed="3.65" length="1.44" shape="3386.25,3525.02 3385.03,3524.25"/>
    </edge>
    <edge id=":1955840482_6" function="internal">
        <lane id=":1955840482_6_0" index="0" disallow="tram rail_urban rail rail_electric rail_fast ship" speed="3.65" length="3.23" shape="3385.03,3524.25 3384.62,3523.46 3385.00,3522.65 3386.19,3521.82"/>
    </edge>
    <edge id=":1955840482_2" function="internal">
        <lane id=":1955840482_2_0" index="0" disallow="tram rail_urban rail rail_electric rail_fast ship" speed="6.23" length="9.05" shape="3381.03,3516.14 3381.10,3518.67 3381.98,3520.46 3383.68,3521.51 3386.19,3521.82"/>
    </edge>
    <edge id=":1955840482_3" function="internal">
        <lane id=":1955840482_3_0" index="0" disallow="tram rail_urban rail rail_electric rail_fast ship" speed="7.74" length="11.89" shape="3381.03,3516.14 3380.26,3520.09 3378.99,3522.91 3377.24,3524.62 3375.00,3525.22"/>
    </edge>
    <edge id=":1955840482_4" function="internal">
        <lane id=":1955840482_4_0" index="0" disallow="tram rail_urban rail rail_electric rail_fast ship" speed="22.22" length="11.24" shape="3374.95,3522.02 3386.19,3521.82"/>
    </edge>
    <edge id=":1955840482_5" function="internal">
        <lane id=":1955840482_5_0" index="0" disallow="tram rail_urban rail rail_electric rail_fast ship" speed="3.65" length="1.44" shape="3374.95,3522.02 3376.16,3522.80"/>
    </edge>
    <edge id=":1955840482_7" function="internal">
        <lane id=":1955840482_7_0" index="0" disallow="tram rail_urban rail rail_electric rail_fast ship" speed="3.65" length="3.23" shape="3376.16,3522.80 3376.57,3523.60 3376.18,3524.40 3375.00,3525.22"/>
    </edge>
    <edge id=":1955840483_0" function="internal">
        <lane id=":1955840483_0_0" index="0" disallow="tram rail_urban rail rail_electric rail_fast ship" speed="22.22" length="14.41" shape="3309.51,3525.60 3295.10,3525.49"/>
    </edge>
    <edge id=":1955840483_1" function="internal">