<?xml version="1.0" ?>
<routes xmlns:xsi="http://www.w3.org/2001/XMLSchema-instance" xsi:noNamespaceSchemaLocation="http://sumo.dlr.de/xsd/routes_file.xsd">
 <vType id="veh_passenger" vClass="passenger"/>
 <trip id="veh0" type="veh_passenger" depart="0" departLane="best" from="54388038#0" to="-288761327"/>
 <trip id="veh1" type="veh_passenger" depart="0" departLane="best" from="288761327" to="54388033"/>
 <trip id="veh2" type="veh_passenger" depart="1" departLane="best" from="54388038#0" to="-288761327"/>
 <trip id="veh3" type="veh_passenger" depart="1" departLane="best" from="288761327" to="54388033"/>
 <trip id="veh4" type="veh_passenger" depart="2" departLane="best" from="54388038#0" to="-288761327"/>
 <trip id="veh5" type="veh_passenger" depart="2" departLane="best" from="288761327" to="54388033"/>
 <trip id="veh6" type="veh_passenger" depart="4" departLane="best" from="54388038#0" to="-288761327"/>
 <trip id="veh7" type="veh_passenger" depart="4" departLane="best" from="288761327" to="54388033"/>
 <trip id="veh8" type="veh_passenger" depart="9" departLane="best" from="54388038#0" to="-288761327"/>
 <trip id="veh9" type="veh_passenger" depart="9" departLane="best" from="288761327" to="54388033"/>
 <trip id="veh10" type="veh_passenger" depart="10" departLane="best" from="54388038#0" to="-288761327"/>
 <trip id="veh11" type="veh_passenger" depart="10" departLane="best" from="288761327" to="54388033"/>
 <trip id="veh12" type="veh_passenger" depart="15" departLane="best" from="54388038#0" to="-288761327"/>
 <trip id="veh13" type="veh_passenger" depart="15" departLane="best" from="288761327" to="54388033"/>
 <trip id="veh14" type="veh_passenger" depart="21" departLane="best" from="54388038#0" to="-288761327"/>
 <trip id="veh15" type="veh_passenger" depart="21" departLane="best" from="288761327" to="54388033"/>
 <trip id="veh16" type="veh_passenger" depart="23" departLane="best" from="54388038#0" to="-288761327"/>
 <trip id="veh17" type="veh_passenger" depart="23" departLane="best" from="288761327" to="54388033"/>
 <trip id="veh18" type="veh_passenger" depart="23" departLane="best" from="54388038#0" to="-288761327"/>
 <trip id="veh19" type="veh_passenger" depart="23" departLane="best" from="288761327" to="54388033"/>
 <trip id="veh20" type="veh_passenger" depart="25" departLane="best" from="54388038#0" to="-288761327"/>
 <trip id="veh21" type="veh_passenger" depart="25" departLane="best" from="288761327" to="54388033"/>
 <trip id="veh22" type="veh_passenger" depart="25" departLane="best" from="54388038#0" to="-288761327"/>
 <trip id="veh23" type="veh_passenger" depart="25" departLane="best" from="288761327" to="54388033"/>
 <trip id="veh24" type="veh_passenger" depart="27" departLane="best" from="54388038#0" to="-288761327"/>
 <trip id="veh25" type="veh_passenger" depart="27" departLane="best" from="288761327" to="54388033"/>
 <trip id="veh26" type="veh_passenger" depart="32" departLane="best" from="54388038#0" to="-288761327"/>
 <trip id="veh27" type="veh_passenger" depart="32" departLane="best" from="288761327" to="54388033"/>
 <trip id="veh28" type="veh_passenger" depart="36" departLane="best" from="54388038#0" to="-288761327"/>
 <trip id="veh29" type="veh_passenger" depart="36" departLane="best" from="288761327" to="54388033"/>
 <trip id="veh30" type="veh_passenger" depart="37" departLane="best" from="54388038#0" to="-288761327"/>
 <trip id="veh31" type="veh_passenger" depart="37" departLane="best" from="288761327" to="54388033"/>
 <trip id="veh32" type="veh_passenger" depart="51" departLane="best" from="54388038#0" to="-288761327"/>
 <trip id="veh33" type="veh_passenger" depart="51" departLane="best" from="288761327" to="54388033"/>
 <trip id="veh34" type="veh_passenger" depart="63" departLane="best" from="54388038#0" to="-288761327"/>
 <trip id="veh35" type="veh_passenger" depart="63" departLane="best" from="288761327" to="54388033"/>
 <trip id="veh36" type="veh_passenger" depart="69" departLane="best" from="54388038#0" to="-288761327"/>
 <trip id="veh37" type="veh_passenger" depart="69" departLane="best" from="288761327" to="54388033"/>
 <trip id="veh38" type="veh_passenger" depart="80" departLane="best" from="54388038#0" to="-288761327"/>
 <trip id="veh39" type="veh_passenger" depart="80" departLane="best" from="288761327" to="54388033"/>
 <trip id="veh40" type="veh_passenger" depart="86" departLane="best" from="54388038#0" to="-288761327"/>
 <trip id="veh41" type="veh_passenger" depart="86" departLane="best" from="288761327" to="54388033"/>
 <trip id="veh42" type="veh_passenger" depart="92" departLane="best" from="54388038#0" to="-288761327"/>
 <trip id="veh43" type="veh_passenger" depart="92" departLane="best" from="288761327" to="54388033"/>
 <trip id="veh44" type="veh_passenger" depart="92" departLane="best" from="54388038#0" to="-288761327"/>
 <trip id="veh45" type="veh_passenger" depart="92" departLane="best" from="288761327" to="54388033"/>
 <trip id="veh46" type="veh_passenger" depart="94" departLane="best" from="54388038#0" to="-288761327"/>
 <trip id="veh47" type="veh_passenger" depart="94" departLane="best" from="288761327" to="54388033"/>
 <trip id="veh48" type="veh_passenger" depart="98" departLane="best" from="54388038#0" to="-288761327"/>
 <trip id="veh49" type="veh_passenger" depart="98" departLane="best" from="288761327" to="54388033"/>
 <trip id="veh50" type="veh_passenger" depart="99" departLane="best" from="54388038#0" to="-288761327"/>
 <trip id="veh51" type="veh_passenger" depart="99" departLane="best" from="288761327" to="54388033"/>
 <trip id="veh52" type="veh_passenger" depart="103" departLane="best" from="54388038#0" to="-288761327"/>
 <trip id="veh53" type="veh_passenger" depart="103" departLane="best" from="288761327" to="54388033"/>
 <trip id="veh54" type="veh_passenger" depart="104" departLane="best" from="54388038#0" to="-288761327"/>
 <trip id="veh55" type="veh_passenger" depart="104" departLane="best" from="288761327" to="54388033"/>
 <trip id="veh56" type="veh_passenger" depart="104" departLane="best" from="54388038#0" to="-288761327"/>
 <trip id="veh57" type="veh_passenger" depart="104" departLane="best" from="288761327" to="54388033"/>
 <trip id="veh58" type="veh_passenger" depart="112" departLane="best" from="54388038#0" to="-288761327"/>
 <trip id="veh59" type="veh_passenger" depart="112" departLane="best" from="288761327" to="54388033"/>
 <trip id="veh60" type="veh_passenger" depart="112" departLane="best" from="54388038#0" to="-288761327"/>
 <trip id="veh61" type="veh_passenger" depart="112" departLane="best" from="288761327" to="54388033"/>
 <trip id="veh62" type="veh_passenger" depart="114" departLane="best" from="54388038#0" to="-288761327"/>
 <trip id="veh63" type="veh_passenger" depart="114" departLane="best" from="288761327" to="54388033"/>
 <trip id="veh64" type="veh_passenger" depart="116" departLane="best" from="54388038#0" to="-288761327"/>
 <trip id="veh65" type="veh_passenger" depart="116" departLane="best" from="288761327" to="54388033"/>
 <trip id="veh66" type="veh_passenger" depart="118" departLane="best" from="54388038#0" to="-288761327"/>
 <trip id="veh67" type="veh_passenger" depart="118" departLane="best" from="288761327" to="54388033"/>
 <trip id="veh68" type="veh_passenger" depart="133" departLane="best" from="54388038#0" to="-288761327"/>
 <trip id="veh69" type="veh_passenger" depart="133" departLane="best" from="288761327" to="54388033"/>
 <trip id="veh70" type="veh_passenger" depart="153" departLane="best" from="54388038#0" to="-288761327"/>
 <trip id="veh71" type="veh_passenger" depart="153" departLane="best" from="288761327" to="54388033"/>
 <trip id="veh72" type="veh_passenger" depart="156" departLane="best" from="54388038#0" to="-288761327"/>
 <trip id="veh73" type="veh_passenger" depart="156" departLane="best" from="288761327" to="54388033"/>
 <trip id="veh74" type="veh_passenger" depart="157" departLane="best" from="54388038#0" to="-288761327"/>
 <trip id="veh75" type="veh_passenger" depart="157" departLane="best" from="288761327" to="54388033"/>
 <trip id="veh76" type="veh_passenger" depart="160" departLane="best" from="54388038#0" to="-288761327"/>
 <trip id="veh77" type="veh_passenger" depart="160" departLane="best" from="288761327" to="54388033"/>
 <trip id="veh78" type="veh_passenger" depart="163" departLane="best" from="54388038#0" to="-288761327"/>
 <trip id="veh79" type="veh_passenger" depart="163" departLane="best" from="288761327" to="54388033"/>
 <trip id="veh80" type="veh_passenger" depart="171" departLane="best" from="54388038#0" to="-288761327"/>
 <trip id="veh81" type="veh_passenger" depart="171" departLane="best" from="288761327" to="54388033"/>
 <trip id="veh82" type="veh_passenger" depart="172" departLane="best" from="54388038#0" to="-288761327"/>
 <trip id="veh83" type="veh_passenger" depart="172" departLane="best" from="288761327" to="54388033"/>
 <trip id="veh84" type="veh_passenger" depart="176" departLane="best" from="54388038#0" to="-288761327"/>
 <trip id="veh85" type="veh_passenger" depart="176" departLane="best" from="288761327" to="54388033"/>
 <trip id="veh86" type="veh_passenger" depart="182" departLane="best" from="54388038#0" to="-288761327"/>
 <trip id="veh87" type="veh_passenger" depart="182" departLane="best" from="288761327" to="54388033"/>
 <trip id="veh88" type="veh_passenger" depart="184" departLane="best" from="54388038#0" to="-288761327"/>
 <trip id="veh89" type="veh_passenger" depart="184" departLane="best" from="288761327" to="54388033"/>
 <trip id="veh90" type="veh_passenger" depart="186" departLane="best" from="54388038#0" to="-288761327"/>
 <trip id="veh91" type="veh_passenger" depart="186" departLane="best" from="288761327" to="54388033"/>
 <trip id="veh92" type="veh_passenger" depart="191" departLane="best" from="54388038#0" to="-288761327"/>
 <trip id="veh93" type="veh_passenger" depart="191" departLane="best" from="288761327" to="54388033"/>
 <trip id="veh94" type="veh_passenger" depart="193" departLane="best" from="54388038#0" to="-288761327"/>
 <trip id="veh95" type="veh_passenger" depart="193" departLane="best" from="288761327" to="54388033"/>
 <trip id="veh96" type="veh_passenger" depart="193" departLane="best" from="54388038#0" to="-288761327"/>
 <trip id="veh97" type="veh_passenger" depart="193" departLane="best" from="288761327" to="54388033"/>
 <trip id="veh98" type="veh_passenger" depart="203" departLane="best" from="54388038#0" to="-288761327"/>
 <trip id="veh99" type="veh_passenger" depart="203" departLane="best" from="288761327" to="54388033"/>
 <trip id="veh100" type="veh_passenger" depart="207" departLane="best" from="54388038#0" to="-288761327"/>
 <trip id="veh101" type="veh_passenger" depart="207" departLane="best" from="288761327" to="54388033"/>
 <trip id="veh102" type="veh_passenger" depart="211" departLane="best" from="54388038#0" to="-288761327"/>
 <trip id="veh103" type="veh_passenger" depart="211" departLane="best" from="288761327" to="54388033"/>
 <trip id="veh104" type="veh_passenger" depart="213" departLane="best" from="54388038#0" to="-288761327"/>
 <trip id="veh105" type="veh_passenger" depart="213" departLane="best" from="288761327" to="54388033"/>
 <trip id="veh106" type="veh_passenger" depart="217" departLane="best" from="54388038#0" to="-288761327"/>
 <trip id="veh107" type="veh_passenger" depart="217" departLane="best" from="288761327" to="54388033"/>
 <trip id="veh108" type="veh_passenger" depart="224" departLane="best" from="54388038#0" to="-288761327"/>
 <trip id="veh109" type="veh_passenger" depart="224" departLane="best" from="288761327" to="54388033"/>
 <trip id="veh110" type="veh_passenger" depart="234" departLane="best" from="54388038#0" to="-288761327"/>
 <trip id="veh111" type="veh_passenger" depart="234" departLane="best" from="288761327" to="54388033"/>
 <trip id="veh112" type="veh_passenger" depart="236" departLane="best" from="54388038#0" to="-288761327"/>
 <trip id="veh113" type="veh_passenger" depart="236" departLane="best" from="288761327" to="54388033"/>
 <trip id="veh114" type="veh_passenger" depart="242" departLane="best" from="54388038#0" to="-288761327"/>
 <trip id="veh115" type="veh_passenger" depart="242" departLane="best" from="288761327" to="54388033"/>
 <trip id="veh116" type="veh_passenger" depart="243" departLane="best" from="54388038#0" to="-288761327"/>
 <trip id="veh117" type="veh_passenger" depart="243" departLane="best" from="288761327" to="54388033"/>
 <trip id="veh118" type="veh_passenger" depart="246" departLane="best" from="54388038#0" to="-288761327"/>
 <trip id="veh119" type="veh_passenger" depart="246" departLane="best" from="288761327" to="54388033"/>
 <trip id="veh120" type="veh_passenger" depart="248" departLane="best" from="54388038#0" to="-288761327"/>
 <trip id="veh121" type="veh_passenger" depart="248" departLane="best" from="288761327" to="54388033"/>
 <trip id="veh122" type="veh_passenger" depart="250" departLane="best" from="54388038#0" to="-288761327"/>
 <trip id="veh123" type="veh_passenger" depart="250" departLane="best" from="288761327" to="54388033"/>
 <trip id="veh124" type="veh_passenger" depart="253" departLane="best" from="54388038#0" to="-288761327"/>
 <trip id="veh125" type="veh_passenger" depart="253" departLane="best" from="288761327" to="54388033"/>
 <trip id="veh126" type="veh_passenger" depart="270" departLane="best" from="54388038#0" to="-288761327"/>
 <trip id="veh127" type="veh_passenger" depart="270" departLane="best" from="288761327" to="54388033"/>
 <trip id="veh128" type="veh_passenger" depart="276" departLane="best" from="54388038#0" to="-288761327"/>
 <trip id="veh129" type="veh_passenger" depart="276" departLane="best" from="288761327" to="54388033"/>
 <trip id="veh130" type="veh_passenger" depart="286" departLane="best" from="54388038#0" to="-288761327"/>
 <trip id="veh131" type="veh_passenger" depart="286" departLane="best" from="288761327" to="54388033"/>
 <trip id="veh132" type="veh_passenger" depart="289" departLane="best" from="54388038#0" to="-288761327"/>
 <trip id="veh133" type="veh_passenger" depart="289" departLane="best" from="288761327" to="54388033"/>
 <trip id="veh134" type="veh_passenger" depart="290" departLane="best" from="54388038#0" to="-288761327"/>
 <trip id="veh135" type="veh_passenger" depart="290" departLane="best" from="288761327" to="54388033"/>
 <trip id="veh136" type="veh_passenger" depart="290" departLane="best" from="54388038#0" to="-288761327"/>
 <trip id="veh137" type="veh_passenger" depart="290" departLane="best" from="288761327" to="54388033"/>
 <trip id="veh138" type="veh_passenger" depart="292" departLane="best" from="54388038#0" to="-288761327"/>
 <trip id="veh139" type="veh_passenger" depart="292" departLane="best" from="288761327" to="54388033"/>
 <trip id="veh140" type="veh_passenger" depart="305" departLane="best" from="54388038#0" to="-288761327"/>
 <trip id="veh141" type="veh_passenger" depart="305" departLane="best" from="288761327" to="54388033"/>
 <trip id="veh142" type="veh_passenger" depart="314" departLane="best" from="54388038#0" to="-288761327"/>
 <trip id="veh143" type="veh_passenger" depart="314" departLane="best" from="288761327" to="54388033"/>
 <trip id="veh144" type="veh_passenger" depart="322" departLane="best" from="54388038#0" to="-288761327"/>
 <trip id="veh145" type="veh_passenger" depart="322" departLane="best" from="288761327" to="54388033"/>
 <trip id="veh146" type="veh_passenger" depart="323" departLane="best" from="54388038#0" to="-288761327"/>
 <trip id="veh147" type="veh_passenger" depart="323" departLane="best" from="288761327" to="54388033"/>
 <trip id="veh148" type="veh_passenger" depart="332" departLane="best" from="54388038#0" to="-288761327"/>
 <trip id="veh149" type="veh_passenger" depart="332" departLane="best" from="288761327" to="54388033"/>
 <trip id="veh150" type="veh_passenger" depart="334" departLane="best" from="54388038#0" to="-288761327"/>
 <trip id="veh151" type="veh_passenger" depart="334" departLane="best" from="288761327" to="54388033"/>
 <trip id="veh152" type="veh_passenger" depart="334" departLane="best" from="54388038#0" to="-288761327"/>
 <trip id="veh153" type="veh_passenger" depart="334" departLane="best" from="288761327" to="54388033"/>
 <trip id="veh154" type="veh_passenger" depart="341" departLane="best" from="54388038#0" to="-288761327"/>
 <trip id="veh155" type="veh_passenger" depart="341" departLane="best" from="288761327" to="54388033"/>
 <trip id="veh156" type="veh_passenger" depart="343" departLane="best" from="54388038#0" to="-288761327"/>
 <trip id="veh157" type="veh_passenger" depart="343" departLane="best" from="288761327" to="54388033"/>
 <trip id="veh158" type="veh_passenger" depart="343" departLane="best" from="54388038#0" to="-288761327"/>
 <trip id="veh159" type="veh_passenger" depart="343" departLane="best" from="288761327" to="54388033"/>
 <trip id="veh160" type="veh_passenger" depart="346" departLane="best" from="54388038#0" to="-288761327"/>
 <trip id="veh161" type="veh_passenger" depart="346" departLane="best" from="288761327" to="54388033"/>
 <trip id="veh162" type="veh_passenger" depart="353" departLane="best" from="54388038#0" to="-288761327"/>
 <trip id="veh163" type="veh_passenger" depart="353" departLane="best" from="288761327" to="54388033"/>
 <trip id="veh164" type="veh_passenger" depart="359" departLane="best" from="54388038#0" to="-288761327"/>
 <trip id="veh165" type="veh_passenger" depart="359" departLane="best" from="288761327" to="54388033"/>
 <trip id="veh166" type="veh_passenger" depart="361" departLane="best" from="54388038#0" to="-288761327"/>
 <trip id="veh167" type="veh_passenger" depart="361" departLane="best" from="288761327" to="54388033"/>
 <trip id="veh168" type="veh_passenger" depart="363" departLane="best" from="54388038#0" to="-288761327"/>
 <trip id="veh169" type="veh_passenger" depart="363" departLane="best" from="288761327" to="54388033"/>
 <trip id="veh170" type="veh_passenger" depart="365" departLane="best" from="54388038#0" to="-288761327"/>
 <trip id="veh171" type="veh_passenger" depart="365" departLane="best" from="288761327" to="54388033"/>
 <trip id="veh172" type="veh_passenger" depart="371" departLane="best" from="54388038#0" to="-288761327"/>
 <trip id="veh173" type="veh_passenger" depart="371" departLane="best" from="288761327" to="54388033"/>
 <trip id="veh174" type="veh_passenger" depart="374" departLane="best" from="54388038#0" to="-288761327"/>
 <trip id="veh175" type="veh_passenger" depart="374" departLane="best" from="288761327" to="54388033"/>
 <trip id="veh176" type="veh_passenger" depart="378" departLane="best" from="54388038#0" to="-288761327"/>
 <trip id="veh177" type="veh_passenger" depart="378" departLane="best" from="288761327" to="54388033"/>
 <trip id="veh178" type="veh_passenger" depart="378" departLane="best" from="54388038#0" to="-288761327"/>
 <trip id="veh179" type="veh_passenger" depart="378" departLane="best" from="288761327" to="54388033"/>
 <trip id="veh180" type="veh_passenger" depart="388" departLane="best" from="54388038#0" to="-288761327"/>
 <trip id="veh181" type="veh_passenger" depart="388" departLane="best" from="288761327" to="54388033"/>
 <trip id="veh182" type="veh_passenger" depart="390" departLane="best" from="54388038#0" to="-288761327"/>
 <trip id="veh183" type="veh_passenger" depart="390" departLane="best" from="288761327" to="54388033"/>
 <trip id="veh184" type="veh_passenger" depart="391" departLane="best" from="54388038#0" to="-288761327"/>
 <trip id="veh185" type="veh_passenger" depart="391" departLane="best" from="288761327" to="54388033"/>
 <trip id="veh186" type="veh_passenger" depart="391" departLane="best" from="54388038#0" to="-288761327"/>
 <trip id="veh187" type="veh_passenger" depart="391" departLane="best" from="288761327" to="54388033"/>
 <trip id="veh188" type="veh_passenger" depart="396" departLane="best" from="54388038#0" to="-288761327"/>
 <trip id="veh189" type="veh_passenger" depart="396" departLane="best" from="288761327" to="54388033"/>
 <trip id="veh190" type="veh_passenger" depart="400" departLane="best" from="54388038#0" to="-288761327"/>
 <trip id="veh191" type="veh_passenger" depart="400" departLane="best" from="288761327" to="54388033"/>
 <trip id="veh192" type="veh_passenger" depart="402" departLane="best" from="54388038#0" to="-288761327"/>
 <trip id="veh193" type="veh_passenger" depart="402" departLane="best" from="288761327" to="54388033"/>
 <trip id="veh194" type="veh_passenger" depart="406" departLane="best" from="54388038#0" to="-288761327"/>
 <trip id="veh195" type="veh_passenger" depart="406" departLane="best" from="288761327" to="54388033"/>
 <trip id="veh196" type="veh_passenger" depart="409" departLane="best" from="54388038#0" to="-288761327"/>
 <trip id="veh197" type="veh_passenger" depart="409" departLane="best" from="288761327" to="54388033"/>
 <trip id="veh198" type="veh_passenger" depart="419" departLane="best" from="54388038#0" to="-288761327"/>
 <trip id="veh199" type="veh_passenger" depart="419" departLane="best" from="288761327" to="54388033"/>
 <trip id="veh200" type="veh_passenger" depart="421" departLane="best" from="54388038#0" to="-288761327"/>
 <trip id="veh201" type="veh_passenger" depart="421" departLane="best" from="288761327" to="54388033"/>
 <trip id="veh202" type="veh_passenger" depart="423" departLane="best" from="54388038#0" to="-288761327"/>
 <trip id="veh203" type="veh_passenger" depart="423" departLane="best" from="288761327" to="54388033"/>
 <trip id="veh204" type="veh_passenger" depart="425" departLane="best" from="54388038#0" to="-288761327"/>
 <trip id="veh205" type="veh_passenger" depart="425" departLane="best" from="288761327" to="54388033"/>
 <trip id="veh206" type="veh_passenger" depart="439" departLane="best" from="54388038#0" to="-288761327"/>
 <trip id="veh207" type="veh_passenger" depart="439" departLane="best" from="288761327" to="54388033"/>
 <trip id="veh208" type="veh_passenger" depart="445" departLane="best" from="54388038#0" to="-288761327"/>
 <trip id="veh209" type="veh_passenger" depart="445" departLane="best" from="288761327" to="54388033"/>
 <trip id="veh210" type="veh_passenger" depart="448" departLane="best" from="54388038#0" to="-288761327"/>
 <trip id="veh211" type="veh_passenger" depart="448" departLane="best" from="288761327" to="54388033"/>
 <trip id="veh212" type="veh_passenger" depart="453" departLane="best" from="54388038#0" to="-288761327"/>
 <trip id="veh213" type="veh_passenger" depart="453" departLane="best" from="288761327" to="54388033"/>
 <trip id="veh214" type="veh_passenger" depart="453" departLane="best" from="54388038#0" to="-288761327"/>
 <trip id="veh215" type="veh_passenger" depart="453" departLane="best" from="288761327" to="54388033"/>
 <trip id="veh216" type="veh_passenger" depart="467" departLane="best" from="54388038#0" to="-288761327"/>
 <trip id="veh217" type="veh_passenger" depart="467" departLane="best" from="288761327" to="54388033"/>
 <trip id="veh218" type="veh_passenger" depart="470" departLane="best" from="54388038#0" to="-288761327"/>
 <trip id="veh219" type="veh_passenger" depart="470" departLane="best" from="288761327" to="54388033"/>
 <trip id="veh220" type="veh_passenger" depart="476" departLane="best" from="54388038#0" to="-288761327"/>
 <trip id="veh221" type="veh_passenger" depart="476" departLane="best" from="288761327" to="54388033"/>
 <trip id="veh222" type="veh_passenger" depart="477" departLane="best" from="54388038#0" to="-288761327"/>
 <trip id="veh223" type="veh_passenger" depart="477" departLane="best" from="288761327" to="54388033"/>
 <trip id="veh224" type="veh_passenger" depart="485" departLane="best" from="54388038#0" to="-288761327"/>
 <trip id="veh225" type="veh_passenger" depart="485" departLane="best" from="288761327" to="54388033"/>
 <trip id="veh226" type="veh_passenger" depart="485" departLane="best" from="54388038#0" to="-288761327"/>
 <trip id="veh227" type="veh_passenger" depart="485" departLane="best" from="288761327" to="54388033"/>
 <trip id="veh228" type="veh_passenger" depart="494" departLane="best" from="54388038#0" to="-288761327"/>
 <trip id="veh229" type="veh_passenger" depart="494" departLane="best" from="288761327" to="54388033"/>
 <trip id="veh230" type="veh_passenger" depart="494" departLane="best" from="54388038#0" to="-288761327"/>
 <trip id="veh231" type="veh_passenger" depart="494" departLane="best" from="288761327" to="54388033"/>
 <trip id="veh232" type="veh_passenger" depart="495" departLane="best" from="54388038#0" to="-288761327"/>
 <trip id="veh233" type="veh_passenger" depart="495" departLane="best" from="288761327" to="54388033"/>
 <trip id="veh234" type="veh_passenger" depart="497" departLane="best" from="54388038#0" to="-288761327"/>
 <trip id="veh235" type="veh_passenger" depart="497" departLane="best" from="288761327" to="54388033"/>
 <trip id="veh236" type="veh_passenger" depart="509" departLane="best" from="54388038#0" to="-288761327"/>
 <trip id="veh237" type="veh_passenger" depart="509" departLane="best" from="288761327" to="54388033"/>
 <trip id="veh238" type="veh_passenger" depart="515" departLane="best" from="54388038#0" to="-288761327"/>
 <trip id="veh239" type="veh_passenger" depart="515" departLane="best" from="288761327" to="54388033"/>
 <trip id="veh240" type="veh_passenger" depart="516" departLane="best" from="54388038#0" to="-288761327"/>
 <trip id="veh241" type="veh_passenger" depart="516" departLane="best" from="288761327" to="54388033"/>
 <trip id="veh242" type="veh_passenger" depart="519" departLane="best" from="54388038#0" to="-288761327"/>
 <trip id="veh243" type="veh_passenger" depart="519" departLane="best" from="288761327" to="54388033"/>
 <trip id="veh244" type="veh_passenger" depart="520" departLane="best" from="54388038#0" to="-288761327"/>
 <trip id="veh245" type="veh_passenger" depart="520" departLane="best" from="288761327" to="54388033"/>
 <trip id="veh246" type="veh_passenger" depart="529" departLane="best" from="54388038#0" to="-288761327"/>
 <trip id="veh247" type="veh_passenger" depart="529" departLane="best" from="288761327" to="54388033"/>
 <trip id="veh248" type="veh_passenger" depart="544" departLane="best" from="54388038#0" to="-288761327"/>
 <trip id="veh249" type="veh_passenger" depart="544" departLane="best" from="288761327" to="54388033"/>
 <trip id="veh250" type="veh_passenger" depart="549" departLane="best" from="54388038#0" to="-288761327"/>
 <trip id="veh251" type="veh_passenger" depart="549" departLane="best" from="288761327" to="54388033"/>
 <trip id="veh252" type="veh_passenger" depart="549" departLane="best" from="54388038#0" to="-288761327"/>
 <trip id="veh253" type="veh_passenger" depart="549" departLane="best" from="288761327" to="54388033"/>
 <trip id="veh254" type="veh_passenger" depart="551" departLane="best" from="54388038#0" to="-288761327"/>
 <trip id="veh255" type="veh_passenger" depart="551" departLane="best" from="288761327" to="54388033"/>
 <trip id="veh256" type="veh_passenger" depart="556" departLane="best" from="54388038#0" to="-288761327"/>
 <trip id="veh257" type="veh_passenger" depart="556" departLane="best" from="288761327" to="54388033"/>
 <trip id="veh258" type="veh_passenger" depart="559" departLane="best" from="54388038#0" to="-288761327"/>
 <trip id="veh259" type="veh_passenger" depart="559" departLane="best" from="288761327" to="54388033"/>
 <trip id="veh260" type="veh_passenger" depart="560" departLane="best" from="54388038#0" to="-288761327"/>
 <trip id="veh261" type="veh_passenger" depart="560" departLane="best" from="288761327" to="54388033"/>
 <trip id="veh262" type="veh_passenger" depart="570" departLane="best" from="54388038#0" to="-288761327"/>
 <trip id="veh263" type="veh_passenger" depart="570" departLane="best" from="288761327" to="54388033"/>
 <trip id="veh264" type="veh_passenger" depart="571" departLane="best" from="54388038#0" to="-288761327"/>
 <trip id="veh265" type="veh_passenger" depart="571" departLane="best" from="288761327" to="54388033"/>
 <trip id="veh266" type="veh_passenger" depart="572" departLane="best" from="54388038#0" to="-288761327"/>
 <trip id="veh267" type="veh_passenger" depart="572" departLane="best" from="288761327" to="54388033"/>
 <trip id="veh268" type="veh_passenger" depart="578" departLane="best" from="54388038#0" to="-288761327"/>
 <trip id="veh269" type="veh_passenger" depart="578" departLane="best" from="288761327" to="54388033"/>
 <trip id="veh270" type="veh_passenger" depart="581" departLane="best" from="54388038#0" to="-288761327"/>
 <trip id="veh271" type="veh_passenger" depart="581" departLane="best" from="288761327" to="54388033"/>
 <trip id="veh272" type="veh_passenger" depart="582" departLane="best" from="54388038#0" to="-288761327"/>
 <trip id="veh273" type="veh_passenger" depart="582" departLane="best" from="288761327" to="54388033"/>
 <trip id="veh274" type="veh_passenger" depart="583" departLane="best" from="54388038#0" to="-288761327"/>
 <trip id="veh275" type="veh_passenger" depart="583" departLane="best" from="288761327" to="54388033"/>
 <trip id="veh276" type="veh_passenger" depart="583" departLane="best" from="54388038#0" to="-288761327"/>
 <trip id="veh277" type="veh_passenger" depart="583" departLane="best" from="288761327" to="54388033"/>
 <trip id="veh278" type="veh_passenger" depart="595" departLane="best" from="54388038#0" to="-288761327"/>
 <trip id="veh279" type="veh_passenger" depart="595" departLane="best" from="288761327" to="54388033"/>
 <trip id="veh280" type="veh_passenger" depart="599" departLane="best" from="54388038#0" to="-288761327"/>
 <trip id="veh281" type="veh_passenger" depart="599" departLane="best" from="288761327" to="54388033"/>
 <trip id="veh282" type="veh_passenger" depart="601" departLane="best" from="54388038#0" to="-288761327"/>
 <trip id="veh283" type="veh_passenger" depart="601" departLane="best" from="288761327" to="54388033"/>