<?xml version="1.0" encoding="UTF-8"?>

<!-- generated on 2022-07-12 11:17:09 by Eclipse SUMO duarouter Version 1.13.0
<configuration xmlns:xsi="http://www.w3.org/2001/XMLSchema-instance" xsi:noNamespaceSchemaLocation="http://sumo.dlr.de/xsd/duarouterConfiguration.xsd">

    <input>
        <net-file value="dependencias/osm.net.xml"/>
        <route-files value="resultados/rdm.osm.passenger.trips.xml"/>
    </input>

    <output>
        <output-file value="resultados/rdm.osm.passenger.trips.xml.tmp"/>
        <write-trips value="true"/>
    </output>

    <time>
        <begin value="0"/>
        <end value="32351"/>
    </time>

    <report>
        <no-warnings value="true"/>
        <ignore-errors value="true"/>
        <no-step-log value="true"/>
    </report>

</configuration>
-->

<routes xmlns:xsi="http://www.w3.org/2001/XMLSchema-instance" xsi:noNamespaceSchemaLocation="http://sumo.dlr.de/xsd/routes_file.xsd">
    <vType id="veh_passenger" vClass="passenger"/>
    <trip id="veh0" type="veh_passenger" depart="0.00" departLane="best" from="54236808#1" to="-251109238#0"/>
    <trip id="veh1" type="veh_passenger" depart="8.00" departLane="best" departSpeed="max" from="-62210387#1" to="-610429073"/>
    <trip id="veh2" type="veh_passenger" depart="16.00" departLane="best" from="54730936#0-AddedOffRampEdge" to="54388033"/>
    <trip id="veh3" type="veh_passenger" depart="24.00" departLane="best" from="62091528#0" to="-270845256"/>
    <trip id="veh4" type="veh_passenger" depart="32.00" departLane="best" from="-610429073" to="276701227"/>
    <trip id="veh5" type="veh_passenger" depart="40.00" departLane="best" from="-251109240#1" to="-54237159"/>
    <trip id="veh6" type="veh_passenger" depart="48.00" departLane="best" from="54236927#1" to="37570231"/>
    <trip id="veh7" type="veh_passenger" depart="56.00" departLane="best" from="-610429079" to="512554278"/>
    <trip id="veh8" type="veh_passenger" depart="64.00" departLane="best" from="610429145#0" to="-185008481#2"/>
    <trip id="veh10" type="veh_passenger" depart="80.00" departLane="best" from="1032668346" to="-54233842#0"/>
    <trip id="veh11" type="veh_passenger" depart="88.00" departLane="best" from="773118474" to="1032668346"/>
    <trip id="veh12" type="veh_passenger" depart="96.00" departLane="best" departSpeed="max" from="-276701228" to="-271430025"/>
    <trip id="veh13" type="veh_passenger" depart="104.00" departLane="best" from="611313456" to="54233842#3"/>
    <trip id="veh14" type="veh_passenger" depart="112.00" departLane="best" from="610429141" to="54730936#0-AddedOffRampEdge"/>
    <trip id="veh15" type="veh_passenger" depart="120.00" departLane="best" from="288926477#0" to="776164848"/>
    <trip id="veh16" type="veh_passenger" depart="128.00" departLane="best" from="185008517#0" to="388821217"/>
    <trip id="veh17" type="veh_passenger" depart="136.00" departLane="best" from="611313418" to="54233844#7"/>
    <trip id="veh18" type="veh_passenger" depart="144.00" departLane="best" from="62067093" to="475098568#1"/>
    <trip id="veh19" type="veh_passenger" depart="152.00" departLane="best" from="54388038#1" to="-251109259"/>
    <trip id="veh20" type="veh_passenger" depart="160.00" departLane="best" from="-610429120" to="-656790884"/>
    <trip id="veh21" type="veh_passenger" depart="168.00" departLane="best" from="-267076649" to="-610429123"/>
    <trip id="veh22" type="veh_passenger" depart="176.00" departLane="best" from="54236691" to="169985234#1"/>
    <trip id="veh23" type="veh_passenger" depart="184.00" departLane="best" departSpeed="max" from="170017412#0" to="-609022397"/>
    <trip id="veh24" type="veh_passenger" depart="192.00" departLane="best" from="-62071832#0" to="76379860#2"/>
    <trip id="veh25" type="veh_passenger" depart="200.00" departLane="best" from="54236927#0" to="54233844#1"/>
    <trip id="veh26" type="veh_passenger" depart="208.00" departLane="best" from="-54233844#6" to="54730936#0"/>
    <trip id="veh27" type="veh_passenger" depart="216.00" departLane="best" from="83895089" to="54236809"/>
    <trip id="veh29" type="veh_passenger" depart="232.00" departLane="best" from="611313448" to="610429084"/>
    <trip id="veh30" type="veh_passenger" depart="240.00" departLane="best" from="-610429120" to="-251109243#1"/>
    <trip id="veh31" type="veh_passenger" depart="248.00" departLane="best" from="-76379867#1" to="-62071832#1"/>
    <trip id="veh32" type="veh_passenger" depart="256.00" departLane="best" from="62071832#1" to="-76379867#4"/>
    <trip id="veh33" type="veh_passenger" depart="264.00" departLane="best" from="675121683" to="251109603#1"/>
    <trip id="veh34" type="veh_passenger" depart="272.00" departLane="best" from="-62071831#2" to="-611313436#0"/>
    <trip id="veh35" type="veh_passenger" depart="280.00" departLane="best" from="413947987#0" to="-62071831#0"/>
    <trip id="veh36" type="veh_passenger" depart="288.00" departLane="best" from="475098976" to="62210386"/>
    <trip id="veh37" type="veh_passenger" depart="296.00" departLane="best" from="251044699#0" to="-609022403"/>
    <trip id="veh38" type="veh_passenger" depart="304.00" departLane="best" from="926275329" to="277992299#0"/>
    <trip id="veh39" type="veh_passenger" depart="312.00" departLane="best" departSpeed="max" from="-271787279" to="-251109263#0"/>
    <trip id="veh40" type="veh_passenger" depart="320.00" departLane="best" from="-288761374" to="54236689#2"/>
    <trip id="veh41" type="veh_passenger" depart="328.00" departLane="best" from="610429113" to="251109240#1"/>
    <trip id="veh42" type="veh_passenger" depart="336.00" departLane="best" from="-251147111" to="231234769"/>
    <trip id="veh43" type="veh_passenger" depart="344.00" departLane="best" from="926275328" to="288926477#0"/>
    <trip id="veh44" type="veh_passenger" depart="352.00" departLane="best" from="775700986#0" to="62067093"/>
    <trip id="veh45" type="veh_passenger" depart="360.00" departLane="best" from="-231234773#1" to="544179646"/>
    <trip id="veh47" type="veh_passenger" depart="376.00" departLane="best" from="-62071832#0" to="54236809"/>
    <trip id="veh48" type="veh_passenger" depart="384.00" departLane="best" departSpeed="max" from="-288761375" to="251109255#1"/>
    <trip id="veh49" type="veh_passenger" depart="392.00" departLane="best" from="251109263#0" to="76379874#2"/>
    <trip id="veh50" type="veh_passenger" depart="400.00" departLane="best" from="62071832#1" to="-62071831#1"/>
    <trip id="veh51" type="veh_passenger" depart="408.00" departLane="best" from="656790884" to="62071831#1"/>
    <trip id="veh52" type="veh_passenger" depart="416.00" departLane="best" from="-690957879#0" to="54236808#3"/>
    <trip id="veh53" type="veh_passenger" depart="424.00" departLane="best" from="609022396#0" to="37569844"/>
    <trip id="veh54" type="veh_passenger" depart="432.00" departLane="best" from="610429079" to="288926477#0"/>
    <trip id="veh55" type="veh_passenger" depart="440.00" departLane="best" from="-169985234#0" to="-798454257"/>
    <trip id="veh56" type="veh_passenger" depart="448.00" departLane="best" from="-251109229#0" to="76379851#0"/>
    <trip id="veh57" type="veh_passenger" depart="456.00" departLane="best" from="62071836" to="611313441#1"/>
    <trip id="veh58" type="veh_passenger" depart="464.00" departLane="best" from="-735454350" to="-251109603#2"/>
    <trip id="veh59" type="veh_passenger" depart="472.00" departLane="best" from="62071832#2" to="76379867#3"/>
    <trip id="veh60" type="veh_passenger" depart="480.00" departLane="best" from="-271787220" to="251150572#0"/>
    <trip id="veh61" type="veh_passenger" depart="488.00" departLane="best" from="609022398#1" to="-313623067#1"/>
    <trip id="veh62" type="veh_passenger" depart="496.00" departLane="best" from="251112203#0" to="37571029"/>
    <trip id="veh63" type="veh_passenger" depart="504.00" departLane="best" from="-62071831#2" to="62071832#0"/>
    <trip id="veh64" type="veh_passenger" depart="512.00" departLane="best" departSpeed="max" from="251109238#0" to="-609022398#1"/>
    <trip id="veh65" type="veh_passenger" depart="520.00" departLane="best" from="313507365#0" to="54730936#0-AddedOffRampEdge"/>
    <trip id="veh66" type="veh_passenger" depart="528.00" departLane="best" from="-54244298" to="-76379867#2"/>
    <trip id="veh67" type="veh_passenger" depart="536.00" departLane="best" from="251109253" to="277992301#0"/>
    <trip id="veh68" type="veh_passenger" depart="544.00" departLane="best" from="-313507365#0" to="-610429079"/>
    <trip id="veh69" type="veh_passenger" depart="552.00" departLane="best" departSpeed="max" from="-84629331" to="512554278"/>
    <trip id="veh70" type="veh_passenger" depart="560.00" departLane="best" from="-610429123" to="-609022403"/>
    <trip id="veh71" type="veh_passenger" depart="568.00" departLane="best" departSpeed="max" from="-251150152#1" to="54236691"/>
    <trip id="veh72" type="veh_passenger" depart="576.00" departLane="best" from="-610429120" to="62210389#2"/>
    <trip id="veh73" type="veh_passenger" depart="584.00" departLane="best" from="617377279#0" to="-251147111"/>
    <trip id="veh74" type="veh_passenger" depart="592.00" departLane="best" from="-610429307" to="54383216"/>
    <trip id="veh75" type="veh_passenger" depart="600.00" departLane="best" from="-609022401#0" to="-413947988"/>
    <trip id="veh76" type="veh_passenger" depart="608.00" departLane="best" from="76379860#1" to="448386449"/>
    <trip id="veh77" type="veh_passenger" depart="616.00" departLane="best" departSpeed="max" from="251112202#0" to="610429108"/>
    <trip id="veh78" type="veh_passenger" depart="624.00" departLane="best" from="-277992299#0" to="251109253"/>
    <trip id="veh79" type="veh_passenger" depart="632.00" departLane="best" from="251109238#1" to="251112203#1"/>
    <trip id="veh80" type="veh_passenger" depart="640.00" departLane="best" from="544179661" to="54383216-AddedOnRampEdge"/>
    <trip id="veh81" type="veh_passenger" depart="648.00" departLane="best" from="83895084" to="-271787220"/>
    <trip id="veh82" type="veh_passenger" depart="656.00" departLane="best" from="251044699#2" to="1032668347#0"/>
    <trip id="veh83" type="veh_passenger" depart="664.00" departLane="best" from="-54236808#3" to="251109263#0"/>
    <trip id="veh84" type="veh_passenger" depart="672.00" departLane="best" departSpeed="max" from="251109238#0" to="-62210389#2"/>
    <trip id="veh85" type="veh_passenger" depart="680.00" departLane="best" from="-611313456" to="690957879#1"/>
    <trip id="veh86" type="veh_passenger" depart="688.00" departLane="best" from="251109257#0" to="62067093"/>
    <trip id="veh87" type="veh_passenger" depart="696.00" departLane="best" from="37570232" to="-251109601#0"/>
    <trip id="veh88" type="veh_passenger" depart="704.00" departLane="best" from="926275330" to="611313444"/>
    <trip id="veh89" type="veh_passenger" depart="712.00" departLane="best" from="775541324" to="735454342"/>
    <trip id="veh90" type="veh_passenger" depart="720.00" departLane="best" from="611313459" to="-54233844#2"/>
    <trip id="veh91" type="veh_passenger" depart="728.00" departLane="best" from="251147114" to="-609022398#3"/>
    <trip id="veh92" type="veh_passenger" depart="736.00" departLane="best" from="251044699#1" to="-251109603#2"/>
    <trip id="veh93" type="veh_passenger" depart="744.00" departLane="best" from="185008517#0" to="83895084"/>
    <trip id="veh94" type="veh_passenger" depart="752.00" departLane="best" from="-62071831#2" to="610429105"/>
    <trip id="veh95" type="veh_passenger" depart="760.00" departLane="best" from="773118474" to="852187620"/>
    <trip id="veh96" type="veh_passenger" depart="768.00" departLane="best" from="388821217" to="544179645"/>
    <trip id="veh97" type="veh_passenger" depart="776.00" departLane="best" from="37569844" to="54730938#1"/>
    <trip id="veh98" type="veh_passenger" depart="784.00" departLane="best" from="267076649" to="61651493"/>
    <trip id="veh99" type="veh_passenger" depart="792.00" departLane="best" from="-267076649" to="-54236690"/>
    <trip id="veh100" type="veh_passenger" depart="800.00" departLane="best" from="512554280" to="54383216-AddedOnRampEdge"/>
    <trip id="veh101" type="veh_passenger" depart="808.00" departLane="best" from="-610429225" to="-288761365"/>
    <trip id="veh102" type="veh_passenger" depart="816.00" departLane="best" from="62091527" to="-611313436#0"/>
    <trip id="veh103" type="veh_passenger" depart="824.00" departLane="best" from="512554279" to="54236202"/>
    <trip id="veh104" type="veh_passenger" depart="832.00" departLane="best" from="251109236#1" to="512552720#1"/>
    <trip id="veh105" type="veh_passenger" depart="840.00" departLane="best" from="277992299#2" to="76379860#1"/>
    <trip id="veh106" type="veh_passenger" depart="848.00" departLane="best" from="-54244430" to="544179644"/>
    <trip id="veh107" type="veh_passenger" depart="856.00" departLane="best" departSpeed="max" from="-611313404" to="251044699#0"/>
    <trip id="veh108" type="veh_passenger" depart="864.00" departLane="best" from="54383216" to="-735454341"/>
    <trip id="veh109" type="veh_passenger" depart="872.00" departLane="best" from="-76379867#2" to="54730940"/>
    <trip id="veh110" type="veh_passenger" depart="880.00" departLane="best" departSpeed="max" from="-251150153" to="251109603#1"/>
    <trip id="veh111" type="veh_passenger" depart="888.00" departLane="best" from="-62071831#2" to="76379860#0"/>
    <trip id="veh112" type="veh_passenger" depart="896.00" departLane="best" from="62071839#0" to="62071839#0"/>
    <trip id="veh113" type="veh_passenger" depart="904.00" departLane="best" departSpeed="max" from="170017412#0" to="-54233842#1"/>
    <trip id="veh114" type="veh_passenger" depart="912.00" departLane="best" from="611313441#0" to="54388040"/>
    <trip id="veh115" type="veh_passenger" depart="920.00" departLane="best" from="54233844#1" to="83895086"/>
    <trip id="veh116" type="veh_passenger" depart="928.00" departLane="best" from="54237159" to="-185008492"/>
    <trip id="veh117" type="veh_passenger" depart="936.00" departLane="best" from="610429152" to="-735454341"/>
    <trip id="veh118" type="veh_passenger" depart="944.00" departLane="best" from="54244297" to="76379866#0"/>
    <trip id="veh119" type="veh_passenger" depart="952.00" departLane="best" from="-448386448" to="-277992301#1"/>
    <trip id="veh120" type="veh_passenger" depart="960.00" departLane="best" departSpeed="max" from="-277992301#2" to="396898068"/>
    <trip id="veh121" type="veh_passenger" depart="968.00" departLane="best" from="-62210386" to="54233842#3"/>
    <trip id="veh122" type="veh_passenger" depart="976.00" departLane="best" from="544179640#1" to="-54244300"/>
    <trip id="veh123" type="veh_passenger" depart="984.00" departLane="best" departSpeed="max" from="54236690" to="-62071831#1"/>
    <trip id="veh124" type="veh_passenger" depart="992.00" departLane="best" from="251150152#0" to="62210389#2"/>
    <trip id="veh125" type="veh_passenger" depart="1000.00" departLane="best" from="611313454" to="-271430016"/>
    <trip id="veh126" type="veh_passenger" depart="1008.00" departLane="best" from="251109238#1" to="-62210389#1"/>
    <trip id="veh127" type="veh_passenger" depart="1016.00" departLane="best" from="-185008481#0" to="610429065"/>
    <trip id="veh128" type="veh_passenger" depart="1024.00" departLane="best" from="54236692" to="-62071831#0"/>
    <trip id="veh129" type="veh_passenger" depart="1032.00" departLane="best" from="251109240#1" to="-231234773#0"/>
    <trip id="veh130" type="veh_passenger" depart="1040.00" departLane="best" from="-251152278#1" to="62071839#1"/>
    <trip id="veh131" type="veh_passenger" depart="1048.00" departLane="best" from="62210389#2" to="37570231"/>
    <trip id="veh132" type="veh_passenger" depart="1056.00" departLane="best" from="611313441#0" to="512552719"/>
    <trip id="veh133" type="veh_passenger" depart="1064.00" departLane="best" from="-512552720#0" to="-313623067#0"/>
    <trip id="veh134" type="veh_passenger" depart="1072.00" departLane="best" from="-76379866#0" to="62210387#0"/>
    <trip id="veh135" type="veh_passenger" depart="1080.00" departLane="best" from="610429123" to="62067093"/>
    <trip id="veh136" type="veh_passenger" depart="1088.00" departLane="best" from="62210387#0" to="-609022398#0"/>
    <trip id="veh137" type="veh_passenger" depart="1096.00" departLane="best" from="-611313456" to="-271787250"/>
    <trip id="veh138" type="veh_passenger" depart="1104.00" departLane="best" from="610429084" to="62071839#1"/>
    <trip id="veh139" type="veh_passenger" depart="1112.00" departLane="best" from="251109225#0" to="54236204"/>
    <trip id="veh140" type="veh_passenger" depart="1120.00" departLane="best" from="-54233842#0" to="76379851#0"/>
    <trip id="veh141" type="veh_passenger" depart="1128.00" departLane="best" from="62068447" to="824243717"/>
    <trip id="veh142" type="veh_passenger" depart="1136.00" departLane="best" from="610429145#1" to="62071839#0-AddedOffRampEdge"/>
    <trip id="veh143" type="veh_passenger" depart="1144.00" departLane="best" from="-251109240#0" to="54730936#1"/>
    <trip id="veh144" type="veh_passenger" depart="1152.00" departLane="best" from="-83895083" to="76379851#1"/>
    <trip id="veh145" type="veh_passenger" depart="1160.00" departLane="best" from="610429126#3" to="62071821"/>
    <trip id="veh146" type="veh_passenger" depart="1168.00" departLane="best" from="610429145#1" to="-62071832#0"/>
    <trip id="veh147" type="veh_passenger" depart="1176.00" departLane="best" from="610429095" to="-277992299#2"/>
    <trip id="veh148" type="veh_passenger" depart="1184.00" departLane="best" from="62071831#1" to="617377279#1"/>
    <trip id="veh149" type="veh_passenger" depart="1192.00" departLane="best" from="-610429090" to="610429307"/>
    <trip id="veh150" type="veh_passenger" depart="1200.00" departLane="best" from="251109601#2" to="-76379866#0"/>
    <trip id="veh151" type="veh_passenger" depart="1208.00" departLane="best" from="610429123" to="-610429095"/>
    <trip id="veh152" type="veh_passenger" depart="1216.00" departLane="best" from="-251109238#1" to="-54236927#0"/>
    <trip id="veh153" type="veh_passenger" depart="1224.00" departLane="best" from="-798454257" to="62071821"/>
    <trip id="veh154" type="veh_passenger" depart="1232.00" departLane="best" from="773522926" to="-62210389#2"/>
    <trip id="veh155" type="veh_passenger" depart="1240.00" departLane="best" from="54236808#2" to="251044699#2"/>
    <trip id="veh156" type="veh_passenger" depart="1248.00" departLane="best" from="83895082" to="313507365#1"/>
    <trip id="veh157" type="veh_passenger" depart="1256.00" departLane="best" from="76379866#0" to="-277992301#1"/>
    <trip id="veh158" type="veh_passenger" depart="1264.00" departLane="best" from="775700986#0" to="-54236688#0"/>
    <trip id="veh159" type="veh_passenger" depart="1272.00" departLane="best" from="773502178#0" to="-62071831#2"/>
    <trip id="veh160" type="veh_passenger" depart="1280.00" departLane="best" from="544179661" to="-76379867#3"/>
    <trip id="veh161" type="veh_passenger" depart="1288.00" departLane="best" from="54233842#2" to="277992299#1"/>
    <trip id="veh162" type="veh_passenger" depart="1296.00" departLane="best" from="231234769" to="475098568#1"/>
    <trip id="veh164" type="veh_passenger" depart="1312.00" departLane="best" departSpeed="max" from="-170017412#1" to="735454342"/>
    <trip id="veh165" type="veh_passenger" depart="1320.00" departLane="best" from="54730937" to="54383216"/>
    <trip id="veh166" type="veh_passenger" depart="1328.00" departLane="best" from="1032668361" to="-251147111"/>
    <trip id="veh167" type="veh_passenger" depart="1336.00" departLane="best" from="54244297" to="-83895088"/>
    <trip id="veh168" type="veh_passenger" depart="1344.00" departLane="best" from="-76379867#0" to="611804904"/>
    <trip id="veh169" type="veh_passenger" depart="1352.00" departLane="best" from="544179644" to="-735454341"/>
    <trip id="veh170" type="veh_passenger" depart="1360.00" departLane="best" from="-76379866#0" to="251109229#1"/>
    <trip id="veh171" type="veh_passenger" depart="1368.00" departLane="best" from="251044699#2" to="-690957881"/>
    <trip id="veh172" type="veh_passenger" depart="1376.00" departLane="best" from="-413947987#0" to="251109240#0"/>
    <trip id="veh173" type="veh_passenger" depart="1384.00" departLane="best" from="76379866#1" to="54388033"/>
    <trip id="veh174" type="veh_passenger" depart="1392.00" departLane="best" from="62210389#1" to="54233844#6"/>
    <trip id="veh175" type="veh_passenger" depart="1400.00" departLane="best" departSpeed="max" from="-735454332" to="37571027"/>
    <trip id="veh176" type="veh_passenger" depart="1408.00" departLane="best" from="-169985234#0" to="-631347552#1"/>
    <trip id="veh177" type="veh_passenger" depart="1416.00" departLane="best" from="54237162" to="251112202#1"/>
    <trip id="veh178" type="veh_passenger" depart="1424.00" departLane="best" from="251109255#1" to="-609022398#3"/>
    <trip id="veh179" type="veh_passenger" depart="1432.00" departLane="best" departSpeed="max" from="251112202#0" to="62210387#1"/>
    <trip id="veh180" type="veh_passenger" depart="1440.00" departLane="best" from="610429123" to="-54233844#4"/>
    <trip id="veh181" type="veh_passenger" depart="1448.00" departLane="best" from="-271430025" to="277992300#1"/>
    <trip id="veh182" type="veh_passenger" depart="1456.00" departLane="best" from="610429300" to="54730940"/>
    <trip id="veh183" type="veh_passenger" depart="1464.00" departLane="best" from="54383216" to="-610429079"/>
    <trip id="veh184" type="veh_passenger" depart="1472.00" departLane="best" from="-54237165" to="-251109238#0"/>
    <trip id="veh185" type="veh_passenger" depart="1480.00" departLane="best" from="-611313436#0" to="251147112#1"/>
    <trip id="veh186" type="veh_passenger" depart="1488.00" departLane="best" from="611313459" to="-251147112#0"/>
    <trip id="veh187" type="veh_passenger" depart="1496.00" departLane="best" from="251109232" to="54236689#5"/>
    <trip id="veh189" type="veh_passenger" depart="1512.00" departLane="best" from="251150572#1" to="-611313416"/>
    <trip id="veh190" type="veh_passenger" depart="1520.00" departLane="best" from="54237165" to="-185008481#1"/>
    <trip id="veh191" type="veh_passenger" depart="1528.00" departLane="best" from="54730938#1" to="610429056"/>
    <trip id="veh192" type="veh_passenger" depart="1536.00" departLane="best" departSpeed="max" from="-277992301#2" to="251109244"/>
    <trip id="veh193" type="veh_passenger" depart="1544.00" departLane="best" departSpeed="max" from="-54236204" to="773119379"/>
    <trip id="veh194" type="veh_passenger" depart="1552.00" departLane="best" from="271787279" to="-251109601#0"/>
    <trip id="veh195" type="veh_passenger" depart="1560.00" departLane="best" from="-611313456" to="611804905#1"/>
    <trip id="veh196" type="veh_passenger" depart="1568.00" departLane="best" from="251109263#1" to="610429141"/>
    <trip id="veh197" type="veh_passenger" depart="1576.00" departLane="best" from="54244299" to="83895087"/>
    <trip id="veh198" type="veh_passenger" depart="1584.00" departLane="best" from="512554280" to="76379874#0"/>
    <trip id="veh199" type="veh_passenger" depart="1592.00" departLane="best" from="62091528#0" to="54233844#4"/>
    <trip id="veh200" type="veh_passenger" depart="1600.00" departLane="best" from="544179644" to="276701227"/>
    <trip id="veh201" type="veh_passenger" depart="1608.00" departLane="best" from="611313436#0" to="37571027"/>
    <trip id="veh202" type="veh_passenger" depart="1616.00" departLane="best" from="62210386" to="54730938#0-AddedOffRampEdge"/>
    <trip id="veh203" type="veh_passenger" depart="1624.00" departLane="best" from="251112202#1" to="-62071826"/>
    <trip id="veh204" type="veh_passenger" depart="1632.00" departLane="best" from="-611313436#1" to="54236808#2"/>
    <trip id="veh205" type="veh_passenger" depart="1640.00" departLane="best" from="609022398#1" to="281803926"/>
    <trip id="veh206" type="veh_passenger" depart="1648.00" departLane="best" from="54236689#0" to="-62210387#0"/>
    <trip id="veh207" type="veh_passenger" depart="1656.00" departLane="best" from="-251152278#3" to="-631347552#1"/>
    <trip id="veh208" type="veh_passenger" depart="1664.00" departLane="best" from="-62210386" to="-773502178#1"/>
    <trip id="veh209" type="veh_passenger" depart="1672.00" departLane="best" from="313507365#0" to="-448386449"/>
    <trip id="veh210" type="veh_passenger" depart="1680.00" departLane="best" from="-610429143" to="54388035#1-AddedOnRampEdge"/>
    <trip id="veh211" type="veh_passenger" depart="1688.00" departLane="best" from="54388038#1" to="-251112202#0"/>
    <trip id="veh212" type="veh_passenger" depart="1696.00" departLane="best" from="251109225#1" to="37569847"/>
    <trip id="veh213" type="veh_passenger" depart="1704.00" departLane="best" from="251109232" to="-544179640#1"/>
    <trip id="veh215" type="veh_passenger" depart="1720.00" departLane="best" from="61651493" to="609022398#4"/>
    <trip id="veh216" type="veh_passenger" depart="1728.00" departLane="best" from="1032668350" to="54730941"/>
    <trip id="veh217" type="veh_passenger" depart="1736.00" departLane="best" from="611804906" to="76379874#2"/>
    <trip id="veh218" type="veh_passenger" depart="1744.00" departLane="best" from="251109236#1" to="54730938#1"/>
    <trip id="veh219" type="veh_passenger" depart="1752.00" departLane="best" from="37569846" to="54233842#2"/>
    <trip id="veh220" type="veh_passenger" depart="1760.00" departLane="best" from="-610429079" to="-609022403"/>
    <trip id="veh221" type="veh_passenger" depart="1768.00" departLane="best" from="-84629329" to="54388033"/>
    <trip id="veh222" type="veh_passenger" depart="1776.00" departLane="best" from="251045084" to="-54233844#1"/>
    <trip id="veh223" type="veh_passenger" depart="1784.00" departLane="best" from="251112199" to="-313623067#0"/>
    <trip id="veh224" type="veh_passenger" depart="1792.00" departLane="best" from="54236202" to="-251109238#1"/>
    <trip id="veh225" type="veh_passenger" depart="1800.00" departLane="best" from="231234774" to="445759885"/>
    <trip id="veh226" type="veh_passenger" depart="1808.00" departLane="best" from="-251109240#1" to="54236810"/>
    <trip id="veh227" type="veh_passenger" depart="1816.00" departLane="best" from="-448386449" to="251112199"/>
    <trip id="veh228" type="veh_passenger" depart="1824.00" departLane="best" from="-251109601#3" to="185008517#2"/>
    <trip id="veh229" type="veh_passenger" depart="1832.00" departLane="best" from="-609022398#1" to="-83895083"/>
    <trip id="veh230" type="veh_passenger" depart="1840.00" departLane="best" from="55689837" to="185008517#2"/>
    <trip id="veh231" type="veh_passenger" depart="1848.00" departLane="best" from="54730938#1" to="611313441#1"/>
    <trip id="veh232" type="veh_passenger" depart="1856.00" departLane="best" from="-611804904" to="-251152278#1"/>
    <trip id="veh233" type="veh_passenger" depart="1864.00" departLane="best" from="-251109229#0" to="37569844"/>
    <trip id="veh234" type="veh_passenger" depart="1872.00" departLane="best" from="926275330" to="1032668351"/>
    <trip id="veh235" type="veh_passenger" depart="1880.00" departLane="best" from="54236927#1" to="610429095"/>
    <trip id="veh236" type="veh_passenger" depart="1888.00" departLane="best" from="54236927#2" to="54730941"/>
    <trip id="veh237" type="veh_passenger" depart="1896.00" departLane="best" from="76379867#4" to="-54237165"/>
    <trip id="veh238" type="veh_passenger" depart="1904.00" departLane="best" departSpeed="max" from="-251109231" to="-54233841#0"/>
    <trip id="veh239" type="veh_passenger" depart="1912.00" departLane="best" from="-413947987#0" to="54383216"/>
    <trip id="veh240" type="veh_passenger" depart="1920.00" departLane="best" from="413947988" to="-609022401#1"/>
    <trip id="veh241" type="veh_passenger" depart="1928.00" departLane="best" departSpeed="max" from="54388038#0" to="609022401#1"/>
    <trip id="veh242" type="veh_passenger" depart="1936.00" departLane="best" from="-54233844#4" to="54233844#0"/>
    <trip id="veh243" type="veh_passenger" depart="1944.00" departLane="best" from="54730938#0-AddedOffRampEdge" to="-277992301#1"/>
    <trip id="veh244" type="veh_passenger" depart="1952.00" departLane="best" from="610429300" to="773502178#1"/>
    <trip id="veh245" type="veh_passenger" depart="1960.00" departLane="best" departSpeed="max" from="-281803926" to="-251109238#0"/>
    <trip id="veh246" type="veh_passenger" depart="1968.00" departLane="best" from="-76379866#2" to="54388033"/>
    <trip id="veh247" type="veh_passenger" depart="1976.00" departLane="best" from="773119379" to="251044699#0"/>
    <trip id="veh248" type="veh_passenger" depart="1984.00" departLane="best" from="544179640#0" to="-251150152#0"/>
    <trip id="veh249" type="veh_passenger" depart="1992.00" departLane="best" from="54388035#1" to="54236689#2"/>
    <trip id="veh250" type="veh_passenger" depart="2000.00" departLane="best" from="-277992300#1" to="610429073"/>
    <trip id="veh251" type="veh_passenger" depart="2008.00" departLane="best" from="-313507365#0" to="83895083"/>
    <trip id="veh252" type="veh_passenger" depart="2016.00" departLane="best" departSpeed="max" from="251109243#0" to="185008481#1"/>
    <trip id="veh253" type="veh_passenger" depart="2024.00" departLane="best" departSpeed="max" from="270845351" to="1032668347#0"/>
    <trip id="veh254" type="veh_passenger" depart="2032.00" departLane="best" from="611313459" to="611313410"/>
    <trip id="veh255" type="veh_passenger" depart="2040.00" departLane="best" from="-277992301#1" to="773122058"/>
    <trip id="veh256" type="veh_passenger" depart="2048.00" departLane="best" from="54236691" to="611313436#1"/>